*SPEF "IEEE 1481-1998"
*DESIGN "final_project_top"
*DATE "Sat Dec 16 12:08:41 2023"
*VENDOR "Cadence Design Systems, Inc."
*PROGRAM "Innovus"
*VERSION "21.10-p004_1"
*DESIGN_FLOW "PIN_CAP NONE" "NAME_SCOPE LOCAL"
*DIVIDER /
*DELIMITER :
*BUS_DELIMITER []
*T_UNIT 1 NS
*C_UNIT 1 PF
*R_UNIT 1 OHM
*L_UNIT 1 HENRY

// MMMC spef file for corner 'typical_rc'

*NAME_MAP

*1 FE_RN_198_0
*2 FE_RN_197_0
*3 FE_RN_196_0
*4 FE_RN_195_0
*5 FE_RN_194_0
*6 FE_RN_193_0
*7 FE_RN_192_0
*8 FE_RN_191_0
*9 FE_RN_190_0
*10 FE_RN_189_0
*11 FE_RN_188_0
*12 FE_RN_187_0
*13 FE_RN_186_0
*14 FE_RN_185_0
*15 FE_RN_184_0
*16 FE_RN_183_0
*17 FE_RN_182_0
*18 FE_RN_181_0
*19 FE_RN_180_0
*20 FE_RN_179_0
*21 FE_RN_178_0
*22 FE_RN_177_0
*23 FE_RN_176_0
*24 FE_RN_175_0
*25 FE_RN_174_0
*26 FE_RN_173_0
*27 FE_RN_172_0
*28 FE_RN_171_0
*29 FE_RN_170_0
*30 FE_RN_169_0
*31 FE_RN_168_0
*32 FE_RN_167_0
*33 FE_RN_166_0
*34 FE_RN_165_0
*35 FE_RN_164_0
*36 FE_RN_163_0
*37 FE_RN_162_0
*38 FE_RN_161_0
*39 FE_RN_160_0
*40 FE_RN_159_0
*41 FE_RN_158_0
*42 FE_RN_157_0
*43 FE_RN_156_0
*44 FE_RN_155_0
*45 FE_RN_154_0
*46 FE_RN_153_0
*47 FE_RN_152_0
*48 FE_RN_151_0
*49 FE_OCPN495_n_4570
*50 FE_OCPN494_n_11316
*51 FE_RN_150_0
*52 FE_RN_149_0
*53 FE_RN_25
*54 FE_OCPN493_n_9375
*55 FE_OCPN492_n_13808
*56 FE_USKN490_rc_gclk_1966
*57 FE_USKN489_rc_gclk_1966
*58 FE_USKN488_rc_gclk_1966
*59 FE_USKN487_rc_gclk_1966
*60 FE_USKN486_rc_gclk_1966
*61 FE_USKN485_rc_gclk_1966
*62 FE_RN_148_0
*63 FE_RN_147_0
*64 FE_RN_24
*65 FE_RN_146_0
*66 FE_RN_145_0
*67 FE_RN_144_0
*68 FE_RN_143_0
*69 FE_OCPN15448_n
*70 FE_OCPN484_n_8423
*71 FE_RN_142_0
*72 FE_RN_141_0
*73 FE_USKN483_rc_gclk_1966
*74 FE_USKN482_rc_gclk_1966
*75 FE_USKN481_rc_gclk_1966
*76 FE_USKN480_rc_gclk_1966
*77 FE_USKN479_rc_gclk_1966
*78 FE_RN_140_0
*79 FE_OCPN15447_n_12627
*80 FE_OCPN15446_n_12627
*81 FE_RN_23
*82 FE_OCPN478_n_14886
*83 FE_OCPN477_n_5675
*84 FE_OCPN476_div_140_86_n_1804
*85 FE_OCPN474_n_12437
*86 FE_OCPN473_n_9314
*87 FE_RN_139_0
*88 FE_RN_136_0
*89 FE_RN_135_0
*90 FE_RN_134_0
*91 FE_OCPN471_n_10156
*92 FE_RN_133_0
*93 FE_RN_132_0
*94 FE_RN_131_0
*95 FE_OCPN470_n_10208
*96 FE_OCPN469_n_11007
*97 FE_OCPN15445_n_15479
*98 FE_OCPN15444_n_15479
*99 FE_RN_130_0
*100 FE_RN_129_0
*101 FE_OCPN15443_n_12617
*102 FE_OCPN15442_div_140_86_n_578
*103 FE_OCPN15441_n
*104 FE_OCPN15440_n
*105 FE_USKN434_rc_gclk_1966
*106 FE_USKN433_rc_gclk_1966
*107 FE_USKN432_rc_gclk_1966
*108 FE_USKN431_rc_gclk_1966
*109 FE_USKN430_rc_gclk_1966
*110 FE_RN_128_0
*111 FE_RN_127_0
*112 FE_OCPN429_n_13513
*113 FE_RN_22
*114 FE_OCPN426_n_5950
*115 FE_OCPN425_n_11496
*116 FE_RN_126_0
*117 FE_RN_125_0
*118 FE_RN_124_0
*119 FE_RN_123_0
*120 FE_RN_122_0
*121 FE_RN_120_0
*122 FE_RN_119_0
*123 FE_OCPN424_n_12339
*124 FE_OCPN15439_n
*125 FE_OCPN15438_div_140_86_n_1804
*126 FE_OFN15437_n
*127 FE_OFN15436_n
*128 FE_OFN15435_n
*129 FE_OFN15434_FE_DBTN43_n_12448
*130 FE_OFN15433_n
*131 FE_OFN15431_n
*132 FE_OFN15430_FE_OCPN15364_n_12356
*133 FE_OFN15429_n
*134 FE_OFN15428_n
*135 FE_OFN15427_n
*136 FE_OFN15426_n_12491
*137 FE_OFN15425_n
*138 FE_OFN15424_n
*139 FE_OFN15423_n_10888
*140 FE_OFN15422_n
*141 FE_OFN15421_n
*142 FE_OFN15420_div_140_86_n_735
*143 FE_RN_117_0
*144 FE_RN_116_0
*145 FE_RN_115_0
*146 FE_RN_113_0
*147 FE_OCPN15419_n
*148 FE_RN_21
*149 FE_RN_112_0
*150 FE_OCPN15418_div_140_86_n_3758
*151 FE_RN_111_0
*152 FE_OCPN423_n_7449
*153 FE_RN_20
*154 FE_RN_19
*155 FE_OCPN15417_n_10651
*156 FE_RN_12
*157 FE_RN_109_0
*158 FE_RN_108_0
*159 FE_RN_106_0
*160 FE_OCPN15416_n_10887
*161 FE_OCPN15415_div_140_86_n_1115
*162 FE_RN_105_0
*163 FE_OCPN422_n_5675
*164 FE_OCPN419_n_12903
*165 FE_OCPN418_div_140_86_n_1174
*166 FE_OCPN417_n_11316
*167 FE_OCPN15414_n
*168 FE_RN_104_0
*169 FE_RN_103_0
*170 FE_RN_102_0
*171 FE_RN_101_0
*172 FE_RN_100_0
*173 FE_RN_99_0
*174 FE_RN_98_0
*175 FE_OCPN415_n_15510
*176 FE_OCPN413_div_140_86_n_1740
*177 FE_OCPN412_n_8893
*178 FE_OCPN411_n_13956
*179 FE_RN_97_0
*180 FE_OCPN410_n_6631
*181 FE_OCPN409_FE_OFN12529_n_604
*182 FE_OCPN408_FE_DBTN18_n_13361
*183 FE_OCPN407_div_140_86_n_1668
*184 FE_OCPN406_n_8893
*185 FE_OCPN405_n_10392
*186 FE_OCPN15413_div_140_86_n_2705
*187 FE_RN_96_0
*188 FE_RN_95_0
*189 FE_RN_94_0
*190 FE_RN_93_0
*191 FE_OCPN15412_FE_OFN12541_n_12828
*192 FE_OCPN403_n_15479
*193 FE_OCPN15411_n_12531
*194 FE_RN_92_0
*195 FE_RN_91_0
*196 FE_RN_90_0
*197 FE_OCPN15410_n
*198 FE_OCPN15408_n_11007
*199 FE_OCPN15407_n
*200 FE_OCPN15406_n
*201 FE_OCPN15405_n
*202 FE_OCPN15404_n
*203 FE_RN_88_0
*204 FE_RN_87_0
*205 FE_RN_86_0
*206 FE_RN_85_0
*207 FE_RN_84_0
*208 FE_RN_83_0
*209 FE_OCPN397_n_8360
*210 FE_OCPN395_n_13812
*211 FE_OCPN394_div_140_86_n_636
*212 FE_RN_82_0
*213 FE_RN_80_0
*214 FE_OCPN15403_n
*215 FE_RN_77_0
*216 FE_RN_76_0
*217 FE_OCPN15402_n_463
*218 FE_OCPN15401_n_463
*219 FE_OCPN15400_div_140_86_n_3637
*220 FE_OCPN393_div_140_86_n_369
*221 FE_RN_75_0
*222 FE_OCPN392_n_9375
*223 FE_OCPN391_n_11180
*224 FE_RN_74_0
*225 FE_RN_73_0
*226 FE_OCPN386_n_11171
*227 FE_RN_18
*228 FE_RN_17
*229 FE_RN_16
*230 FE_OCPN385_n_11282
*231 FE_OCPN15399_n_12891
*232 FE_OCPN15398_n
*233 FE_OCPN15397_n_13173
*234 FE_RN_15
*235 FE_RN_72_0
*236 FE_RN_71_0
*237 FE_RN_70_0
*238 FE_RN_69_0
*239 FE_OCPN15396_div_140_86_n_413
*240 FE_RN_68_0
*241 FE_RN_67_0
*242 FE_RN_66_0
*243 FE_OCPN15394_n_10832
*244 FE_OCPN15393_n_15286
*245 FE_RN_65_0
*246 FE_OCPN15392_div_140_86_n_561
*247 FE_RN_64_0
*248 FE_RN_63_0
*249 FE_RN_62_0
*250 FE_RN_61_0
*251 FE_RN_60_0
*252 FE_OCPN380_n_12790
*253 FE_OCPN15391_n_11144
*254 FE_RN_59_0
*255 FE_RN_58_0
*256 FE_OCPN15390_div_140_86_n_614
*257 FE_OCPN15389_n
*258 FE_RN_56_0
*259 FE_OCPN374_n_11180
*260 FE_RN_55_0
*261 FE_RN_54_0
*262 FE_RN_53_0
*263 FE_RN_14
*264 FE_OCPN15388_div_140_86_n_3136
*265 FE_OCPN373_n_11670
*266 FE_OCPN371_n_12456
*267 FE_RN_13
*268 FE_OCPN370_div_140_86_n_492
*269 FE_OCPN368_n_9598
*270 FE_OCPN15387_div_140_86_n_517
*271 FE_RN_11
*272 FE_OCPN367_FE_DBTN16_n_11316
*273 FE_OCPN15385_div_140_86_n_2282
*274 FE_OCPN15384_n
*275 FE_RN_52_0
*276 FE_RN_51_0
*277 FE_RN_50_0
*278 FE_RN_49_0
*279 FE_RN_48_0
*280 FE_RN_47_0
*281 FE_OCPN363_n_12838
*282 FE_OCPN15383_FE_OFN15_n_12435
*283 FE_RN_46_0
*284 FE_RN_45_0
*285 FE_OCPN15382_div_140_86_n_696
*286 FE_RN_44_0
*287 FE_RN_43_0
*288 FE_RN_42_0
*289 FE_RN_41_0
*290 FE_RN_40_0
*291 FE_OCPN15381_div_140_86_n_3468
*292 FE_OCPN15380_n_11544
*293 FE_OCPN15379_n_15487
*294 FE_RN_37_0
*295 FE_RN_36_0
*296 FE_OCPN15378_n_9932
*297 FE_OCPN15377_n_9932
*298 FE_OCPN15376_n_8488
*299 FE_RN_35_0
*300 FE_OCPN15375_n
*301 FE_OCPN15374_n
*302 FE_OCPN15373_n
*303 FE_RN_34_0
*304 FE_RN_33_0
*305 FE_OCPN15372_n_608
*306 FE_OCPN15371_n_608
*307 FE_OCPN337_FE_DBTN13_n_8893
*308 FE_RN_10
*309 FE_OCPN15370_n_10938
*310 FE_OCPN15369_n_10938
*311 FE_RN_9
*312 FE_RN_31_0
*313 FE_RN_30_0
*314 FE_RN_29_0
*315 FE_RN_28_0
*316 FE_RN_27_0
*317 FE_RN_26_0
*318 FE_OCPN15368_div_140_86_n_324
*319 FE_OCPN331_n_11431
*320 FE_RN_8
*321 FE_RN_7
*322 FE_OCPN330_n_11842
*323 FE_RN_6
*324 FE_RN_24_0
*325 FE_RN_23_0
*326 FE_RN_22_0
*327 FE_RN_21_0
*328 FE_OCPN15366_div_140_86_n_607
*329 FE_OCPN15365_n_10629
*330 FE_OCPN329_n_12787
*331 FE_OCPN15364_n_12356
*332 FE_OCPN327_n_11496
*333 FE_RN_5
*334 FE_RN_19_0
*335 FE_OCPN15363_n_11671
*336 FE_RN_18_0
*337 FE_RN_17_0
*338 FE_RN_16_0
*339 FE_OCPN15362_n_5670
*340 FE_OCPN15361_n_10651
*341 FE_OCPN15359_n_5443
*342 FE_RN_15_0
*343 FE_OCPN15357_n_9455
*344 FE_OCPN15356_div_140_86_n_72
*345 FE_OCPN15355_FE_OFN12552_n_15241
*346 FE_OCPN15354_n_15479
*347 FE_OCPN15353_n_463
*348 FE_OCPN15352_n_463
*349 FE_OCPN15351_n_313
*350 FE_RN_14_0
*351 FE_OCPN15347_n_464
*352 FE_OCPN15345_div_140_86_n_2648
*353 FE_OCPN15344_n_11747
*354 FE_OCPN15343_n
*355 FE_OCPN15341_n
*356 FE_OCPN155_n_11068
*357 FE_OCPN153_n_14966
*358 FE_OCPN152_n_12321
*359 FE_OCPN151_FE_DBTN42_div_140_86_n_376
*360 FE_OCPN148_n_9370
*361 FE_OCPN147_n_11178
*362 FE_OCPN141_n_9051
*363 FE_OCPN140_n_11452
*364 FE_OCPN139_n_15444
*365 FE_OCPN138_n_8631
*366 FE_OCPN136_div_140_86_n_551
*367 FE_OCPN134_n_8484
*368 FE_OCPN133_n_12569
*369 FE_OCPN132_n_11179
*370 FE_OCPN131_div_140_86_n_365
*371 FE_OCPN130_n_13110
*372 FE_OCPN127_n_7096
*373 FE_OCPN126_n_13172
*374 FE_OCPN124_n_6770
*375 FE_OCPN123_div_140_86_n_547
*376 FE_OCPN122_div_140_86_n_365
*377 FE_OCPN119_n_4673
*378 FE_RN_4
*379 FE_OCPN115_div_140_86_n_1954
*380 FE_OCPN114_n_11092
*381 FE_OCPN113_div_140_86_n_553
*382 FE_OCPN112_n_12799
*383 FE_OCPN111_n_10389
*384 FE_OCPN110_div_140_86_n_539
*385 FE_RN_13_0
*386 FE_RN_12_0
*387 FE_OCPN107_n_3870
*388 FE_OCPN106_n_13409
*389 FE_OCPN15340_n_14929
*390 FE_OCPN105_n_15514
*391 FE_OCPN103_n_10531
*392 FE_OCPN101_n_12304
*393 FE_OCPN100_n_13066
*394 FE_OCPN98_n_13066
*395 FE_OCPN97_n_4278
*396 FE_OCPN15339_n
*397 FE_OCPN95_n_13810
*398 FE_OCPN90_n_13962
*399 FE_OCPN88_n_12038
*400 FE_OCPN87_n_15252
*401 FE_OCPN84_n_13824
*402 FE_OCPN80_n_12038
*403 FE_OCPN78_div_140_86_n_2330
*404 FE_OCPN77_div_140_86_n_523
*405 FE_OCPN76_n_6733
*406 FE_OCPN73_n_10751
*407 FE_OCPN67_n_4008
*408 FE_OCPN66_n_5820
*409 FE_OCPN64_n_465
*410 FE_OCPN61_n_6306
*411 FE_RN_3
*412 FE_OCPN59_n_12426
*413 FE_OCPN57_n_12323
*414 FE_RN_11_0
*415 FE_RN_10_0
*416 FE_RN_2
*417 FE_RN_9_0
*418 FE_OCPN52_n_12840
*419 FE_OCPN51_n_11825
*420 FE_OCPN50_n_13065
*421 FE_OCPN49_n_15511
*422 FE_OCPN48_n_12497
*423 FE_OCPN47_n_13597
*424 FE_OCPN46_FE_DBTN41_n_15483
*425 FE_OCPN45_n_15483
*426 FE_RN_7_0
*427 FE_OCPN44_n_12694
*428 FE_OCPN15338_n_13087
*429 FE_RN_1
*430 FE_OCPN15337_n_14965
*431 FE_OCPN15336_div_140_86_n_488
*432 FE_OCPN15334_n_12628
*433 FE_RN_6_0
*434 FE_RN_5_0
*435 FE_OCPN15332_n_13830
*436 FE_OCPN15331_n_6916
*437 FE_OCPN15330_div_140_86_n_2664
*438 FE_RN_4_0
*439 FE_RN_3_0
*440 FE_RN_2_0
*441 FE_OCPN15327_FE_DBTN20_n_10715
*442 FE_OCPN15326_FE_DBTN20_n_10715
*443 FE_OCPN15325_FE_DBTN20_n_10715
*444 FE_OCPN15324_n_8353
*445 FE_OCPN15322_n_15526
*446 FE_OCPN15321_n_8723
*447 FE_OCPN15320_n_12380
*448 FE_OCPN15319_div_140_86_n_1225
*449 FE_OCPN15318_n_13089
*450 FE_OCPN15317_n_12828
*451 FE_OCPN15316_n_8893
*452 FE_OCPN15315_n_11432
*453 FE_OCPN15314_n_13971
*454 FE_OCPN15313_div_140_86_n_568
*455 FE_OCPN15312_n_10715
*456 FE_OCPN15311_n_9961
*457 FE_OCPN15310_n_8355
*458 FE_OCPN15309_n_8355
*459 FE_OCPN15308_n_12428
*460 FE_OCPN15307_n_10012
*461 FE_OCPN15305_n_13097
*462 FE_OCPN15304_n_8423
*463 FE_OFN15301_n_12435
*464 FE_OFN15300_n_12435
*465 FE_OFN15299_n_12435
*466 FE_OFN15297_FE_DBTN21_n_9932
*467 FE_OFN15295_n_464
*468 FE_OFN15293_n_606
*469 FE_OFN15292_n
*470 FE_OFN15291_n
*471 FE_OFN15290_n_12828
*472 FE_OFN15288_n
*473 FE_OFN15287_n
*474 FE_OFN12555_n
*475 FE_OFN12554_n
*476 FE_OFN12553_n
*477 FE_OFN12552_n_15241
*478 FE_OFN12551_n_463
*479 FE_OFN12550_n_463
*480 FE_OFN12549_n_463
*481 FE_OFN12548_n_12437
*482 FE_OFN12545_n
*483 FE_OFN12544_n
*484 FE_OFN12543_n
*485 FE_OFN12542_n_12828
*486 FE_OFN12541_n_12828
*487 FE_OFN12539_div_140_86_n_1054
*488 FE_OFN12536_n_9932
*489 FE_OFN12535_n_3969
*490 FE_OFN12533_n
*491 FE_OFN12532_n_4830
*492 FE_OFN12530_n_604
*493 FE_OFN12529_n_604
*494 FE_OFN12528_n_5165
*495 FE_OFN12527_n_15286
*496 FE_OFN12526_n_608
*497 FE_OFN12525_n_608
*498 FE_OFN12524_n_464
*499 FE_OFN12523_n_464
*500 FE_OFN12522_n_464
*501 FE_OFN12521_n_12828
*502 FE_OFN12519_div_140_86_n_941
*503 FE_OFN12517_n_12448
*504 FE_OFN12516_n_12448
*505 FE_OFN12515_n_11422
*506 FE_OFN12514_n_12274
*507 FE_OFN12512_n_463
*508 FE_OFN12511_n_463
*509 FE_OFN12510_n_463
*510 FE_OFN12509_n_463
*511 FE_OFN12507_n_10788
*512 FE_OFN12506_n_10788
*513 FE_OFN12505_n_10788
*514 FE_OFN12504_n_12790
*515 FE_OFN12502_n_11126
*516 FE_OFN12501_n_10235
*517 FE_OFN12500_n_10651
*518 FE_OFN12499_n_604
*519 FE_OFN12498_n_604
*520 FE_OFN12496_n_15241
*521 FE_OFN12495_n_4025
*522 FE_OFN12494_n_4025
*523 FE_OFN12493_n_12448
*524 FE_OFN12492_n_464
*525 FE_OFN12491_n
*526 FE_OFN12444_n_606
*527 FE_OFN12442_n
*528 FE_OFN12441_n_15274
*529 FE_OFN12440_FE_DBTN23_n_12828
*530 FE_OFN12439_n_4372
*531 FE_OFN12438_FE_DBTN27_n_11671
*532 FE_OFN12437_n_463
*533 FE_OFN39_n_3969
*534 FE_OFN38_n_465
*535 FE_OFN37_n_8423
*536 FE_OFN36_n_12490
*537 FE_OFN35_n_12490
*538 FE_OFN34_div_140_86_n_1054
*539 FE_OFN32_div_140_86_n_973
*540 FE_OFN31_n_9932
*541 FE_OFN29_div_140_86_n_976
*542 FE_OFN28_n_15286
*543 FE_OFN27_n_10338
*544 FE_OFN25_n_313
*545 FE_OFN24_n_313
*546 FE_OFN23_div_140_86_n_808
*547 FE_OFN22_n_10887
*548 FE_OFN21_n_10887
*549 FE_OFN20_n_10887
*550 FE_OFN19_n_12323
*551 FE_OFN18_n_15241
*552 FE_OFN17_n_15241
*553 FE_OFN16_n_12356
*554 FE_OFN15_n_12435
*555 FE_OFN11_n_11339
*556 FE_OFN10_n_11339
*557 FE_OFN9_n_11339
*558 FE_OFN8_n_11339
*559 FE_OFN7_n_10697
*560 FE_OFN6_n_10788
*561 FE_OFN5_n_427
*562 FE_OFN4_div_140_86_n_3760
*563 FE_OFN3_div_140_86_n_3760
*564 FE_OFN2_div_140_86_n_3760
*565 FE_OFN1_div_140_86_n_3760
*566 FE_OFN0_div_140_86_n_3760
*567 FE_DBTN43_n_12448
*568 FE_DBTN42_div_140_86_n_376
*569 FE_DBTN41_n_15483
*570 FE_DBTN40_div_140_86_n_607
*571 FE_DBTN39_div_140_86_n_735
*572 FE_DBTN38_div_140_86_n_1174
*573 FE_DBTN37_n_11432
*574 FE_DBTN36_n_13097
*575 FE_DBTN35_div_140_86_n_1394
*576 FE_DBTN34_n_14886
*577 FE_DBTN33_n_9698
*578 FE_DBTN32_n_7728
*579 FE_DBTN31_n_8810
*580 FE_DBTN29_n_12601
*581 FE_DBTN28_n_15479
*582 FE_DBTN27_n_11671
*583 FE_DBTN26_n_12327
*584 FE_DBTN25_n_12493
*585 FE_DBTN24_n_12314
*586 FE_DBTN22_n_10938
*587 FE_DBTN21_n_9932
*588 FE_DBTN20_n_10715
*589 FE_DBTN19_n_11341
*590 FE_DBTN18_n_13361
*591 FE_DBTN17_n_6598
*592 FE_DBTN16_n_11316
*593 FE_DBTN15_n_10824
*594 FE_DBTN14_n_8355
*595 FE_DBTN13_n_8893
*596 FE_DBTN12_n_10790
*597 FE_DBTN11_n_15292
*598 FE_DBTN10_n_11054
*599 FE_DBTN9_n_13106
*600 FE_DBTN8_n_11126
*601 FE_DBTN7_n_11225
*602 FE_DBTN6_n_11339
*603 FE_DBTN5_n_11496
*604 FE_DBTN4_n_11842
*605 FE_DBTN3_n_13354
*606 FE_DBTN2_n_13757
*607 FE_DBTN1_n_12064
*608 FE_DBTN0_n_13822
*609 i_CLK
*610 i_RESET
*611 i_ENABLE
*612 i_MODE
*613 i_temp_NEW[11]
*614 i_temp_NEW[10]
*615 i_temp_NEW[9]
*616 i_temp_NEW[8]
*617 i_temp_NEW[7]
*618 i_temp_NEW[6]
*619 i_temp_NEW[5]
*620 i_temp_NEW[4]
*621 i_temp_NEW[3]
*622 i_temp_NEW[2]
*623 i_temp_NEW[1]
*624 i_temp_NEW[0]
*625 o_DONE
*626 o_RESULT[11]
*627 o_RESULT[10]
*628 o_RESULT[9]
*629 o_RESULT[8]
*630 o_RESULT[7]
*631 o_RESULT[6]
*632 o_RESULT[5]
*633 o_RESULT[4]
*634 o_RESULT[3]
*635 o_RESULT[2]
*636 o_RESULT[1]
*637 o_RESULT[0]
*638 reg0_temp_TOTAL[15]
*639 reg0_temp_TOTAL[14]
*640 reg0_temp_TOTAL[13]
*641 reg0_temp_TOTAL[12]
*642 reg0_temp_TOTAL[1]
*643 reg0_temp_TOTAL[0]
*644 reg0_AVERAGE[11]
*645 reg0_AVERAGE[10]
*646 reg0_AVERAGE[9]
*647 reg0_AVERAGE[8]
*648 reg0_AVERAGE[7]
*649 reg0_AVERAGE[6]
*650 reg0_AVERAGE[5]
*651 reg0_AVERAGE[4]
*652 reg0_AVERAGE[3]
*653 reg0_AVERAGE[2]
*654 reg0_AVERAGE[1]
*655 reg0_AVERAGE[0]
*656 reg0_num_samples[4]
*657 reg0_num_samples[3]
*658 reg0_num_samples[2]
*659 reg0_num_samples[1]
*660 reg0_num_samples[0]
*661 reg0_sum_squares[27]
*662 reg0_sum_squares[26]
*663 reg0_sum_squares[25]
*664 reg0_sum_squares[24]
*665 reg0_sum_squares[23]
*666 reg0_sum_squares[22]
*667 reg0_sum_squares[21]
*668 reg0_sum_squares[19]
*669 reg0_sum_squares[18]
*670 reg0_sum_squares[17]
*671 reg0_sum_squares[14]
*672 reg0_sum_squares[13]
*673 reg0_sum_squares[12]
*674 reg0_sum_squares[10]
*675 reg0_sum_squares[9]
*676 reg0_sum_squares[8]
*677 reg0_sum_squares[5]
*678 reg0_sum_squares[4]
*679 reg0_sum_squares[3]
*680 reg0_sum_squares[2]
*681 reg0_sum_squares[1]
*682 reg0_sum_squares[0]
*683 reg0_VARIANCE[23]
*684 reg0_VARIANCE[19]
*685 reg0_VARIANCE[17]
*686 reg0_VARIANCE[16]
*687 reg0_VARIANCE[8]
*688 reg0_VARIANCE[6]
*689 reg0_VARIANCE[5]
*690 reg0_VARIANCE[4]
*691 reg0_VARIANCE[3]
*692 reg0_VARIANCE[2]
*693 reg0_VARIANCE[1]
*694 reg0_VARIANCE[0]
*695 UNCONNECTED
*696 UNCONNECTED0
*697 UNCONNECTED1
*698 UNCONNECTED2
*699 UNCONNECTED3
*700 UNCONNECTED4
*701 UNCONNECTED5
*702 WALLACE_CSA_DUMMY_OP_groupi_n_6
*703 WALLACE_CSA_DUMMY_OP_groupi_n_10
*704 WALLACE_CSA_DUMMY_OP_groupi_n_15
*705 WALLACE_CSA_DUMMY_OP_groupi_n_16
*706 WALLACE_CSA_DUMMY_OP_groupi_n_17
*707 WALLACE_CSA_DUMMY_OP_groupi_n_18
*708 WALLACE_CSA_DUMMY_OP_groupi_n_19
*709 WALLACE_CSA_DUMMY_OP_groupi_n_32
*710 WALLACE_CSA_DUMMY_OP_groupi_n_33
*711 WALLACE_CSA_DUMMY_OP_groupi_n_42
*712 WALLACE_CSA_DUMMY_OP_groupi_n_53
*713 WALLACE_CSA_DUMMY_OP_groupi_n_54
*714 WALLACE_CSA_DUMMY_OP_groupi_n_55
*715 WALLACE_CSA_DUMMY_OP_groupi_n_56
*716 WALLACE_CSA_DUMMY_OP_groupi_n_57
*717 WALLACE_CSA_DUMMY_OP_groupi_n_58
*718 WALLACE_CSA_DUMMY_OP_groupi_n_60
*719 WALLACE_CSA_DUMMY_OP_groupi_n_61
*720 WALLACE_CSA_DUMMY_OP_groupi_n_62
*721 WALLACE_CSA_DUMMY_OP_groupi_n_63
*722 csa_tree_SUB_UNS_OP_groupi_n_1
*723 csa_tree_SUB_UNS_OP_groupi_n_2
*724 csa_tree_SUB_UNS_OP_groupi_n_4
*725 csa_tree_SUB_UNS_OP_groupi_n_11
*726 csa_tree_SUB_UNS_OP_groupi_n_12
*727 csa_tree_SUB_UNS_OP_groupi_n_14
*728 csa_tree_SUB_UNS_OP_groupi_n_20
*729 csa_tree_SUB_UNS_OP_groupi_n_22
*730 csa_tree_SUB_UNS_OP_groupi_n_23
*731 csa_tree_SUB_UNS_OP_groupi_n_24
*732 csa_tree_SUB_UNS_OP_groupi_n_25
*733 csa_tree_SUB_UNS_OP_groupi_n_26
*734 csa_tree_SUB_UNS_OP_groupi_n_27
*735 csa_tree_SUB_UNS_OP_groupi_n_28
*736 csa_tree_SUB_UNS_OP_groupi_n_29
*737 csa_tree_SUB_UNS_OP_groupi_n_30
*738 csa_tree_SUB_UNS_OP_groupi_n_31
*739 csa_tree_SUB_UNS_OP_groupi_n_32
*740 csa_tree_SUB_UNS_OP_groupi_n_33
*741 csa_tree_SUB_UNS_OP_groupi_n_34
*742 csa_tree_SUB_UNS_OP_groupi_n_35
*743 csa_tree_SUB_UNS_OP_groupi_n_36
*744 csa_tree_SUB_UNS_OP_groupi_n_37
*745 csa_tree_SUB_UNS_OP_groupi_n_38
*746 csa_tree_SUB_UNS_OP_groupi_n_39
*747 csa_tree_SUB_UNS_OP_groupi_n_40
*748 csa_tree_SUB_UNS_OP_groupi_n_41
*749 csa_tree_SUB_UNS_OP_groupi_n_42
*750 csa_tree_SUB_UNS_OP_groupi_n_43
*751 csa_tree_SUB_UNS_OP_groupi_n_44
*752 csa_tree_SUB_UNS_OP_groupi_n_45
*753 csa_tree_SUB_UNS_OP_groupi_n_46
*754 csa_tree_SUB_UNS_OP_groupi_n_47
*755 csa_tree_SUB_UNS_OP_groupi_n_48
*756 csa_tree_SUB_UNS_OP_groupi_n_49
*757 csa_tree_SUB_UNS_OP_groupi_n_50
*758 csa_tree_SUB_UNS_OP_groupi_n_51
*759 csa_tree_SUB_UNS_OP_groupi_n_70
*760 csa_tree_SUB_UNS_OP_groupi_n_71
*761 csa_tree_SUB_UNS_OP_groupi_n_72
*762 csa_tree_SUB_UNS_OP_groupi_n_73
*763 csa_tree_SUB_UNS_OP_groupi_n_77
*764 csa_tree_SUB_UNS_OP_groupi_n_79
*765 csa_tree_SUB_UNS_OP_groupi_n_96
*766 csa_tree_SUB_UNS_OP_groupi_n_98
*767 csa_tree_SUB_UNS_OP_groupi_n_180
*768 csa_tree_SUB_UNS_OP_groupi_n_181
*769 csa_tree_SUB_UNS_OP_groupi_n_182
*770 csa_tree_SUB_UNS_OP_groupi_n_183
*771 csa_tree_SUB_UNS_OP_groupi_n_184
*772 csa_tree_SUB_UNS_OP_groupi_n_185
*773 csa_tree_SUB_UNS_OP_groupi_n_186
*774 csa_tree_SUB_UNS_OP_groupi_n_187
*775 csa_tree_SUB_UNS_OP_groupi_n_188
*776 csa_tree_SUB_UNS_OP_groupi_n_189
*777 csa_tree_SUB_UNS_OP_groupi_n_190
*778 csa_tree_SUB_UNS_OP_groupi_n_191
*779 csa_tree_SUB_UNS_OP_groupi_n_192
*780 csa_tree_SUB_UNS_OP_groupi_n_193
*781 csa_tree_SUB_UNS_OP_groupi_n_194
*782 csa_tree_SUB_UNS_OP_groupi_n_195
*783 csa_tree_SUB_UNS_OP_groupi_n_196
*784 csa_tree_SUB_UNS_OP_groupi_n_197
*785 csa_tree_SUB_UNS_OP_groupi_n_198
*786 csa_tree_SUB_UNS_OP_groupi_n_199
*787 csa_tree_SUB_UNS_OP_groupi_n_200
*788 csa_tree_SUB_UNS_OP_groupi_n_201
*789 csa_tree_SUB_UNS_OP_groupi_n_202
*790 csa_tree_SUB_UNS_OP_groupi_n_203
*791 csa_tree_SUB_UNS_OP_groupi_n_204
*792 csa_tree_SUB_UNS_OP_groupi_n_205
*793 csa_tree_SUB_UNS_OP_groupi_n_206
*794 csa_tree_SUB_UNS_OP_groupi_n_207
*795 csa_tree_SUB_UNS_OP_groupi_n_208
*796 csa_tree_SUB_UNS_OP_groupi_n_209
*797 csa_tree_SUB_UNS_OP_groupi_n_210
*798 csa_tree_SUB_UNS_OP_groupi_n_211
*799 csa_tree_SUB_UNS_OP_groupi_n_212
*800 csa_tree_SUB_UNS_OP_groupi_n_213
*801 csa_tree_SUB_UNS_OP_groupi_n_214
*802 csa_tree_SUB_UNS_OP_groupi_n_215
*803 csa_tree_SUB_UNS_OP_groupi_n_216
*804 csa_tree_SUB_UNS_OP_groupi_n_217
*805 csa_tree_SUB_UNS_OP_groupi_n_218
*806 csa_tree_SUB_UNS_OP_groupi_n_219
*807 csa_tree_SUB_UNS_OP_groupi_n_220
*808 csa_tree_SUB_UNS_OP_groupi_n_221
*809 csa_tree_SUB_UNS_OP_groupi_n_222
*810 csa_tree_SUB_UNS_OP_groupi_n_223
*811 csa_tree_SUB_UNS_OP_groupi_n_224
*812 csa_tree_SUB_UNS_OP_groupi_n_225
*813 csa_tree_SUB_UNS_OP_groupi_n_226
*814 csa_tree_SUB_UNS_OP_groupi_n_227
*815 csa_tree_SUB_UNS_OP_groupi_n_228
*816 csa_tree_SUB_UNS_OP_groupi_n_229
*817 csa_tree_SUB_UNS_OP_groupi_n_230
*818 csa_tree_SUB_UNS_OP_groupi_n_231
*819 csa_tree_SUB_UNS_OP_groupi_n_232
*820 csa_tree_SUB_UNS_OP_groupi_n_233
*821 csa_tree_SUB_UNS_OP_groupi_n_234
*822 csa_tree_SUB_UNS_OP_groupi_n_235
*823 csa_tree_SUB_UNS_OP_groupi_n_236
*824 csa_tree_SUB_UNS_OP_groupi_n_237
*825 csa_tree_SUB_UNS_OP_groupi_n_238
*826 csa_tree_SUB_UNS_OP_groupi_n_239
*827 csa_tree_SUB_UNS_OP_groupi_n_240
*828 csa_tree_SUB_UNS_OP_groupi_n_241
*829 csa_tree_SUB_UNS_OP_groupi_n_242
*830 csa_tree_SUB_UNS_OP_groupi_n_243
*831 csa_tree_SUB_UNS_OP_groupi_n_244
*832 csa_tree_SUB_UNS_OP_groupi_n_245
*833 csa_tree_SUB_UNS_OP_groupi_n_246
*834 csa_tree_SUB_UNS_OP_groupi_n_247
*835 csa_tree_SUB_UNS_OP_groupi_n_248
*836 csa_tree_SUB_UNS_OP_groupi_n_249
*837 csa_tree_SUB_UNS_OP_groupi_n_250
*838 csa_tree_SUB_UNS_OP_groupi_n_251
*839 csa_tree_SUB_UNS_OP_groupi_n_252
*840 csa_tree_SUB_UNS_OP_groupi_n_253
*841 csa_tree_SUB_UNS_OP_groupi_n_254
*842 csa_tree_SUB_UNS_OP_groupi_n_255
*843 csa_tree_SUB_UNS_OP_groupi_n_256
*844 csa_tree_SUB_UNS_OP_groupi_n_257
*845 csa_tree_SUB_UNS_OP_groupi_n_258
*846 csa_tree_SUB_UNS_OP_groupi_n_259
*847 csa_tree_SUB_UNS_OP_groupi_n_260
*848 csa_tree_SUB_UNS_OP_groupi_n_261
*849 csa_tree_SUB_UNS_OP_groupi_n_262
*850 csa_tree_SUB_UNS_OP_groupi_n_263
*851 csa_tree_SUB_UNS_OP_groupi_n_264
*852 csa_tree_SUB_UNS_OP_groupi_n_265
*853 csa_tree_SUB_UNS_OP_groupi_n_266
*854 csa_tree_SUB_UNS_OP_groupi_n_267
*855 csa_tree_SUB_UNS_OP_groupi_n_268
*856 csa_tree_SUB_UNS_OP_groupi_n_269
*857 csa_tree_SUB_UNS_OP_groupi_n_270
*858 csa_tree_SUB_UNS_OP_groupi_n_271
*859 csa_tree_SUB_UNS_OP_groupi_n_272
*860 csa_tree_SUB_UNS_OP_groupi_n_273
*861 csa_tree_SUB_UNS_OP_groupi_n_274
*862 csa_tree_SUB_UNS_OP_groupi_n_275
*863 csa_tree_SUB_UNS_OP_groupi_n_276
*864 csa_tree_SUB_UNS_OP_groupi_n_277
*865 csa_tree_SUB_UNS_OP_groupi_n_278
*866 csa_tree_SUB_UNS_OP_groupi_n_279
*867 csa_tree_SUB_UNS_OP_groupi_n_280
*868 csa_tree_SUB_UNS_OP_groupi_n_281
*869 csa_tree_SUB_UNS_OP_groupi_n_282
*870 csa_tree_SUB_UNS_OP_groupi_n_283
*871 csa_tree_SUB_UNS_OP_groupi_n_284
*872 csa_tree_SUB_UNS_OP_groupi_n_285
*873 csa_tree_SUB_UNS_OP_groupi_n_286
*874 csa_tree_SUB_UNS_OP_groupi_n_287
*875 csa_tree_SUB_UNS_OP_groupi_n_288
*876 csa_tree_SUB_UNS_OP_groupi_n_289
*877 csa_tree_SUB_UNS_OP_groupi_n_290
*878 csa_tree_SUB_UNS_OP_groupi_n_291
*879 csa_tree_SUB_UNS_OP_groupi_n_292
*880 csa_tree_SUB_UNS_OP_groupi_n_293
*881 csa_tree_SUB_UNS_OP_groupi_n_294
*882 csa_tree_SUB_UNS_OP_groupi_n_295
*883 csa_tree_SUB_UNS_OP_groupi_n_296
*884 csa_tree_SUB_UNS_OP_groupi_n_297
*885 csa_tree_SUB_UNS_OP_groupi_n_298
*886 csa_tree_SUB_UNS_OP_groupi_n_299
*887 csa_tree_SUB_UNS_OP_groupi_n_300
*888 csa_tree_SUB_UNS_OP_groupi_n_301
*889 csa_tree_SUB_UNS_OP_groupi_n_302
*890 csa_tree_SUB_UNS_OP_groupi_n_303
*891 csa_tree_SUB_UNS_OP_groupi_n_304
*892 csa_tree_SUB_UNS_OP_groupi_n_305
*893 csa_tree_SUB_UNS_OP_groupi_n_306
*894 csa_tree_SUB_UNS_OP_groupi_n_307
*895 csa_tree_SUB_UNS_OP_groupi_n_308
*896 csa_tree_SUB_UNS_OP_groupi_n_309
*897 csa_tree_SUB_UNS_OP_groupi_n_310
*898 csa_tree_SUB_UNS_OP_groupi_n_311
*899 csa_tree_SUB_UNS_OP_groupi_n_312
*900 csa_tree_SUB_UNS_OP_groupi_n_313
*901 csa_tree_SUB_UNS_OP_groupi_n_314
*902 csa_tree_SUB_UNS_OP_groupi_n_315
*903 csa_tree_SUB_UNS_OP_groupi_n_316
*904 csa_tree_SUB_UNS_OP_groupi_n_317
*905 csa_tree_SUB_UNS_OP_groupi_n_318
*906 csa_tree_SUB_UNS_OP_groupi_n_319
*907 csa_tree_SUB_UNS_OP_groupi_n_320
*908 csa_tree_SUB_UNS_OP_groupi_n_321
*909 csa_tree_SUB_UNS_OP_groupi_n_322
*910 csa_tree_SUB_UNS_OP_groupi_n_323
*911 csa_tree_SUB_UNS_OP_groupi_n_324
*912 csa_tree_SUB_UNS_OP_groupi_n_325
*913 csa_tree_SUB_UNS_OP_groupi_n_326
*914 csa_tree_SUB_UNS_OP_groupi_n_327
*915 csa_tree_SUB_UNS_OP_groupi_n_328
*916 csa_tree_SUB_UNS_OP_groupi_n_329
*917 csa_tree_SUB_UNS_OP_groupi_n_330
*918 csa_tree_SUB_UNS_OP_groupi_n_331
*919 csa_tree_SUB_UNS_OP_groupi_n_332
*920 csa_tree_SUB_UNS_OP_groupi_n_333
*921 csa_tree_SUB_UNS_OP_groupi_n_334
*922 csa_tree_SUB_UNS_OP_groupi_n_335
*923 csa_tree_SUB_UNS_OP_groupi_n_336
*924 csa_tree_SUB_UNS_OP_groupi_n_337
*925 csa_tree_SUB_UNS_OP_groupi_n_338
*926 csa_tree_SUB_UNS_OP_groupi_n_339
*927 csa_tree_SUB_UNS_OP_groupi_n_340
*928 csa_tree_SUB_UNS_OP_groupi_n_341
*929 csa_tree_SUB_UNS_OP_groupi_n_342
*930 csa_tree_SUB_UNS_OP_groupi_n_343
*931 csa_tree_SUB_UNS_OP_groupi_n_344
*932 csa_tree_SUB_UNS_OP_groupi_n_345
*933 csa_tree_SUB_UNS_OP_groupi_n_346
*934 csa_tree_SUB_UNS_OP_groupi_n_347
*935 csa_tree_SUB_UNS_OP_groupi_n_348
*936 csa_tree_SUB_UNS_OP_groupi_n_349
*937 csa_tree_SUB_UNS_OP_groupi_n_350
*938 csa_tree_SUB_UNS_OP_groupi_n_351
*939 csa_tree_SUB_UNS_OP_groupi_n_352
*940 csa_tree_SUB_UNS_OP_groupi_n_353
*941 csa_tree_SUB_UNS_OP_groupi_n_354
*942 csa_tree_SUB_UNS_OP_groupi_n_355
*943 csa_tree_SUB_UNS_OP_groupi_n_356
*944 csa_tree_SUB_UNS_OP_groupi_n_357
*945 csa_tree_SUB_UNS_OP_groupi_n_358
*946 csa_tree_SUB_UNS_OP_groupi_n_359
*947 csa_tree_SUB_UNS_OP_groupi_n_360
*948 csa_tree_SUB_UNS_OP_groupi_n_361
*949 csa_tree_SUB_UNS_OP_groupi_n_362
*950 csa_tree_SUB_UNS_OP_groupi_n_363
*951 csa_tree_SUB_UNS_OP_groupi_n_364
*952 csa_tree_SUB_UNS_OP_groupi_n_365
*953 csa_tree_SUB_UNS_OP_groupi_n_366
*954 csa_tree_SUB_UNS_OP_groupi_n_367
*955 csa_tree_SUB_UNS_OP_groupi_n_368
*956 csa_tree_SUB_UNS_OP_groupi_n_369
*957 csa_tree_sub_113_70_groupi_n_1
*958 csa_tree_sub_113_70_groupi_n_2
*959 csa_tree_sub_113_70_groupi_n_3
*960 csa_tree_sub_113_70_groupi_n_4
*961 csa_tree_sub_113_70_groupi_n_5
*962 csa_tree_sub_113_70_groupi_n_6
*963 csa_tree_sub_113_70_groupi_n_7
*964 csa_tree_sub_113_70_groupi_n_8
*965 csa_tree_sub_113_70_groupi_n_9
*966 csa_tree_sub_113_70_groupi_n_10
*967 csa_tree_sub_113_70_groupi_n_11
*968 csa_tree_sub_113_70_groupi_n_12
*969 csa_tree_sub_113_70_groupi_n_13
*970 csa_tree_sub_113_70_groupi_n_14
*971 csa_tree_sub_113_70_groupi_n_15
*972 csa_tree_sub_113_70_groupi_n_16
*973 csa_tree_sub_113_70_groupi_n_17
*974 csa_tree_sub_113_70_groupi_n_18
*975 csa_tree_sub_113_70_groupi_n_19
*976 csa_tree_sub_113_70_groupi_n_20
*977 csa_tree_sub_113_70_groupi_n_21
*978 csa_tree_sub_113_70_groupi_n_22
*979 csa_tree_sub_113_70_groupi_n_23
*980 csa_tree_sub_113_70_groupi_n_24
*981 csa_tree_sub_113_70_groupi_n_25
*982 csa_tree_sub_113_70_groupi_n_26
*983 csa_tree_sub_113_70_groupi_n_27
*984 csa_tree_sub_113_70_groupi_n_28
*985 csa_tree_sub_113_70_groupi_n_29
*986 csa_tree_sub_113_70_groupi_n_30
*987 csa_tree_sub_113_70_groupi_n_31
*988 csa_tree_sub_113_70_groupi_n_32
*989 csa_tree_sub_113_70_groupi_n_33
*990 csa_tree_sub_113_70_groupi_n_34
*991 csa_tree_sub_113_70_groupi_n_35
*992 csa_tree_sub_113_70_groupi_n_36
*993 csa_tree_sub_113_70_groupi_n_37
*994 csa_tree_sub_113_70_groupi_n_38
*995 csa_tree_sub_113_70_groupi_n_39
*996 csa_tree_sub_113_70_groupi_n_40
*997 csa_tree_sub_113_70_groupi_n_41
*998 csa_tree_sub_113_70_groupi_n_42
*999 csa_tree_sub_113_70_groupi_n_43
*1000 csa_tree_sub_113_70_groupi_n_44
*1001 csa_tree_sub_113_70_groupi_n_45
*1002 csa_tree_sub_113_70_groupi_n_46
*1003 csa_tree_sub_113_70_groupi_n_47
*1004 csa_tree_sub_113_70_groupi_n_48
*1005 csa_tree_sub_113_70_groupi_n_49
*1006 csa_tree_sub_113_70_groupi_n_50
*1007 csa_tree_sub_113_70_groupi_n_51
*1008 csa_tree_sub_113_70_groupi_n_52
*1009 csa_tree_sub_113_70_groupi_n_53
*1010 csa_tree_sub_113_70_groupi_n_54
*1011 csa_tree_sub_113_70_groupi_n_55
*1012 csa_tree_sub_113_70_groupi_n_56
*1013 csa_tree_sub_113_70_groupi_n_57
*1014 csa_tree_sub_113_70_groupi_n_58
*1015 csa_tree_sub_113_70_groupi_n_59
*1016 csa_tree_sub_113_70_groupi_n_60
*1017 csa_tree_sub_113_70_groupi_n_61
*1018 csa_tree_sub_113_70_groupi_n_62
*1019 csa_tree_sub_113_70_groupi_n_63
*1020 csa_tree_sub_113_70_groupi_n_64
*1021 csa_tree_sub_113_70_groupi_n_65
*1022 csa_tree_sub_113_70_groupi_n_66
*1023 csa_tree_sub_113_70_groupi_n_67
*1024 csa_tree_sub_113_70_groupi_n_68
*1025 csa_tree_sub_113_70_groupi_n_69
*1026 csa_tree_sub_113_70_groupi_n_70
*1027 csa_tree_sub_113_70_groupi_n_71
*1028 csa_tree_sub_113_70_groupi_n_72
*1029 csa_tree_sub_113_70_groupi_n_73
*1030 csa_tree_sub_113_70_groupi_n_74
*1031 csa_tree_sub_113_70_groupi_n_75
*1032 csa_tree_sub_113_70_groupi_n_76
*1033 csa_tree_sub_113_70_groupi_n_77
*1034 csa_tree_sub_113_70_groupi_n_78
*1035 csa_tree_sub_113_70_groupi_n_79
*1036 csa_tree_sub_113_70_groupi_n_81
*1037 csa_tree_sub_113_70_groupi_n_82
*1038 csa_tree_sub_113_70_groupi_n_83
*1039 csa_tree_sub_113_70_groupi_n_84
*1040 csa_tree_sub_113_70_groupi_n_86
*1041 csa_tree_sub_113_70_groupi_n_87
*1042 csa_tree_sub_113_70_groupi_n_88
*1043 csa_tree_sub_113_70_groupi_n_89
*1044 csa_tree_sub_113_70_groupi_n_90
*1045 csa_tree_sub_113_70_groupi_n_91
*1046 csa_tree_sub_113_70_groupi_n_92
*1047 csa_tree_sub_113_70_groupi_n_93
*1048 csa_tree_sub_113_70_groupi_n_94
*1049 csa_tree_sub_113_70_groupi_n_96
*1050 csa_tree_sub_113_70_groupi_n_97
*1051 csa_tree_sub_113_70_groupi_n_98
*1052 csa_tree_sub_113_70_groupi_n_99
*1053 csa_tree_sub_113_70_groupi_n_100
*1054 csa_tree_sub_113_70_groupi_n_101
*1055 csa_tree_sub_113_70_groupi_n_102
*1056 csa_tree_sub_113_70_groupi_n_104
*1057 csa_tree_sub_113_70_groupi_n_105
*1058 csa_tree_sub_113_70_groupi_n_106
*1059 csa_tree_sub_113_70_groupi_n_107
*1060 csa_tree_sub_113_70_groupi_n_108
*1061 csa_tree_sub_113_70_groupi_n_109
*1062 csa_tree_sub_113_70_groupi_n_110
*1063 csa_tree_sub_113_70_groupi_n_111
*1064 csa_tree_sub_113_70_groupi_n_112
*1065 csa_tree_sub_113_70_groupi_n_113
*1066 csa_tree_sub_113_70_groupi_n_114
*1067 csa_tree_sub_113_70_groupi_n_115
*1068 csa_tree_sub_113_70_groupi_n_116
*1069 csa_tree_sub_113_70_groupi_n_117
*1070 csa_tree_sub_113_70_groupi_n_118
*1071 csa_tree_sub_113_70_groupi_n_119
*1072 csa_tree_sub_113_70_groupi_n_120
*1073 csa_tree_sub_113_70_groupi_n_121
*1074 csa_tree_sub_113_70_groupi_n_122
*1075 csa_tree_sub_113_70_groupi_n_124
*1076 csa_tree_sub_113_70_groupi_n_125
*1077 csa_tree_sub_113_70_groupi_n_127